   17

 C      3.09394978     0.23786155     0.22932665
 C      1.83848005     0.31166287    -0.20428000
 C      0.97466394    -0.85010675    -0.01402249
 C     -0.37116664    -1.05613487    -0.26146177
 C     -1.35330693    -0.00023444    -0.02504944
 C     -1.14932145     1.52909570    -0.01343083
 N     -2.62047524    -0.34116560     0.18147091
 H      1.63795917    -1.62352629     0.04548600
 H     -0.73657679    -2.07594044    -0.23944753
 H      1.37000673     1.11800875    -0.52145455
 H     -3.26615438     0.33824138     0.40654250
 H     -2.79050739    -1.39346918     0.19583350
 H      3.91927753     1.21326115     0.36333446
 H      3.32305221    -0.69010372     0.82644719
 H     -2.12915139     2.15361868     0.56483200
 H     -0.06487016     1.79957988     0.35433834
 H     -0.97030464     1.85084550    -1.07717513
   17

 C      3.10237537     0.24057359     0.22930551
 C      1.84153414     0.32236368    -0.20769101
 C      0.95995367    -0.85809610    -0.01292468
 C     -0.36750075    -1.05183426    -0.26064653
 C     -1.33917414    -0.00848865    -0.01452498
 C     -1.14635622     1.52958806    -0.01327711
 N     -2.63174990    -0.34298005     0.17377990
 H      1.58307667    -1.58112881     0.03898113
 H     -0.76936139    -2.07672291    -0.22760273
 H      1.37085463     1.11873030    -0.52616587
 H     -3.21511129     0.30298005     0.36577003
 H     -2.80660305    -1.36607213     0.21880393
 H      3.92569378     1.18135109     0.33039494
 H      3.33073975    -0.67815893     0.83285382
 H     -2.12212544     2.16633515     0.56816349
 H     -0.11899484     1.80263871     0.32546247
 H     -0.93808310     1.82238002    -1.01032043
   17

 C      3.11506895     0.24465464     0.23177809
 C      1.84194299     0.32948910    -0.21022290
 C      0.94696570    -0.86165386    -0.01283026
 C     -0.36661199    -1.04702839    -0.25903081
 C     -1.32516387    -0.01538676    -0.00390495
 C     -1.14353000     1.53031333    -0.01170883
 N     -2.63940803    -0.35037835     0.16474288
 H      1.55915726    -1.59575660     0.03976906
 H     -0.79667590    -2.06985929    -0.21872290
 H      1.36007232     1.16134094    -0.54981114
 H     -3.21710139     0.31384271     0.34105301
 H     -2.83010734    -1.31743313     0.24325471
 H      3.90348471     1.11774993     0.28981709
 H      3.34174146    -0.65389243     0.82745278
 H     -2.07863851     2.15835336     0.55078240
 H     -0.18937084     1.80549674     0.30940702
 H     -0.91942926     1.80064770    -0.95637390
   17

 C      3.13085367     0.24980961     0.23605875
 C      1.83917308     0.33432293    -0.21220716
 C      0.93626816    -0.86072015    -0.01369588
 C     -0.36884547    -1.04218855    -0.25663057
 C     -1.31227343    -0.02070671     0.00687379
 C     -1.14266410     1.53014724    -0.00766292
 N     -2.64304027    -0.36132817     0.15443840
 H      1.56629191    -1.66576251     0.04714955
 H     -0.81597985    -2.05363725    -0.21310949
 H      1.34854355     1.22626122    -0.58472684
 H     -3.26719455     0.36767595     0.33001491
 H     -2.86344631    -1.26940957     0.26964453
 H      3.86021232     1.03246339     0.24351518
 H      3.35628286    -0.62282808     0.81378389
 H     -2.00330374     2.13082444     0.51390089
 H     -0.25158142     1.81303542     0.31659273
 H     -0.91201312     1.79181032    -0.93990353
   17

 C      3.14714755     0.25490167     0.24117186
 C      1.83304404     0.33848450    -0.21406652
 C      0.93010991    -0.85781749    -0.01529730
 C     -0.37420358    -1.03752631    -0.25348850
 C     -1.30139234    -0.02422366     0.01787909
 C     -1.14498009     1.52795508    -0.00177090
 N     -2.64462462    -0.37065099     0.14344296
 H      1.58136827    -1.75857828     0.05813551
 H     -0.82652747    -2.02966513    -0.21091466
 H      1.34773112     1.28983983    -0.62134366
 H     -3.32780173     0.42376313     0.32134097
 H     -2.91058362    -1.25032126     0.30082431
 H      3.81637793     0.94924306     0.19308603
 H      3.37545496    -0.59406199     0.79811919
 H     -1.90859616     2.08918800     0.46309424
 H     -0.28001245     1.83124761     0.35597324
 H     -0.91407147     1.79694667    -0.96797894
   17

 C      3.15980746     0.25748485     0.24632678
 C      1.82410853     0.34298738    -0.21596835
 C      0.92991563    -0.85524797    -0.01744250
 C     -0.38222314    -1.03297881    -0.24965238
 C     -1.29330338    -0.02572893     0.02919796
 C     -1.14831603     1.52279449     0.00338455
 N     -2.64571492    -0.37572070     0.13207764
 H      1.58640971    -1.84423373     0.06979685
 H     -0.82961829    -2.00280636    -0.21208646
 H      1.36318746     1.33588523    -0.65289341
 H     -3.37333854     0.45545898     0.30845820
 H     -2.97120117    -1.26713537     0.33868688
 H      3.80948379     0.90837228     0.13640217
 H      3.40074800    -0.57762718     0.78769585
 H     -1.82321689     2.04932867     0.41326169
 H     -0.27076032     1.86005646     0.42592621
 H     -0.92634381     1.81079368    -1.02297835
   17

 C      3.16618811     0.25638557     0.25125668
 C      1.81335535     0.34821566    -0.21786803
 C      0.93579805    -0.85426544    -0.02004654
 C     -0.39203103    -1.02823430    -0.24516909
 C     -1.28861108    -0.02506046     0.04091254
 C     -1.14708232     1.51336387     0.00482588
 N     -2.64767226    -0.37733141     0.12079352
 H      1.57437075    -1.90542708     0.08022905
 H     -0.82836000    -1.98038600    -0.21637557
 H      1.39527292     1.35603639    -0.67564757
 H     -3.39268127     0.45358810     0.28912039
 H     -3.03500418    -1.29707395     0.37911719
 H      3.86094673     0.93090854     0.06764938
 H      3.43296735    -0.57956491     0.78740971
 H     -1.79360553     2.04174216     0.38994197
 H     -0.24384137     1.89110781     0.51212933
 H     -0.94893922     1.82654693    -1.08027215
   17

 C      3.16833130     0.25411797     0.25535268
 C      1.80189384     0.35404315    -0.21959364
 C      0.94709168    -0.85536436    -0.02310686
 C     -0.40261697    -1.02289774    -0.24009025
 C     -1.28767497    -0.02222393     0.05306034
 C     -1.13814365     1.49984793     0.00173319
 N     -2.65156406    -0.37713464     0.11009663
 H      1.54470953    -1.93380579     0.08853862
 H     -0.82650789    -1.96982708    -0.22345917
 H      1.44091257     1.34811295    -0.68825010
 H     -3.38301006     0.41867932     0.26311116
 H     -3.08883179    -1.31561024     0.41530653
 H      3.94057884     0.98559731    -0.00884726
 H      3.47087492    -0.59768439     0.79688045
 H     -1.83855787     2.07942894     0.40273728
 H     -0.22024416     1.91531810     0.59777260
 H     -0.97957319     1.83905855    -1.12222111
   17

 C      3.16910854     0.25285638     0.25788949
 C      1.79086578     0.35983977    -0.22083060
 C      0.96281833    -0.85850416    -0.02667734
 C     -0.41319002    -1.01679065    -0.23446579
 C     -1.29059421    -0.01751147     0.06560444
 C     -1.12402645     1.48577056    -0.00368739
 N     -2.65771141    -0.37649418     0.10028650
 H      1.50042882    -1.92666122     0.09477801
 H     -0.82649079    -1.97471390    -0.23313661
 H      1.49445368     1.31592611    -0.69179705
 H     -3.34870273     0.35906936     0.23153779
 H     -3.12344632    -1.31030609     0.44216918
 H      4.01267414     1.03738399    -0.08156268
 H      3.51075095    -0.62214393     0.81073417
 H     -1.92024451     2.13201002     0.42970207
 H     -0.21191254     1.92698966     0.67020956
 H     -1.01439616     1.84506021    -1.13961305
   17

 C      3.17015681     0.25308943     0.25856153
 C      1.78138758     0.36432959    -0.22103065
 C      0.98188591    -0.86306878    -0.03087882
 C     -0.42340834    -1.01014297    -0.22834126
 C     -1.29724249    -0.01147589     0.07842855
 C     -1.10787454     1.47417890    -0.00931290
 N     -2.66528814    -0.37689346     0.09136637
 H      1.44753296    -1.88680802     0.10016365
 H     -0.82816976    -1.99209626    -0.24532630
 H      1.54800553     1.27068900    -0.69087813
 H     -3.30566335     0.29511599     0.19720461
 H     -3.13447832    -1.27909430     0.45733274
 H      4.05920680     1.06916768    -0.14186294
 H      3.54779011    -0.64134152     0.82233454
 H     -2.00129055     2.17107088     0.45157689
 H     -0.22369366     1.92352234     0.72135116
 H     -1.04921720     1.84294175    -1.12927793
   17

 C      3.17226678     0.25460509     0.25731833
 C      1.77445286     0.36557455    -0.21935044
 C      1.00300087    -0.86760503    -0.03595236
 C     -0.43330114    -1.00347135    -0.22176682
 C     -1.30731199    -0.00482348     0.09134641
 C     -1.09163612     1.46639167    -0.01385209
 N     -2.67204220    -0.38035625     0.08303447
 H      1.39602259    -1.82596949     0.10766537
 H     -0.82954965    -2.01405326    -0.25983642
 H      1.59252308     1.23125498    -0.69436580
 H     -3.28545385     0.26283778     0.16443582
 H     -3.12221255    -1.22801590     0.46143497
 H      4.07355885     1.07492758    -0.18502082
 H      3.57789088    -0.64684087     0.82683767
 H     -2.06321760     2.18478224     0.46063673
 H     -0.25584306     1.90465322     0.74678704
 H     -1.08002588     1.83289844    -1.09326967
   17

 C      3.17577684     0.25712950     0.25415644
 C      1.77076139     0.36171888    -0.21494574
 C      1.02447783    -0.86949659    -0.04233938
 C     -0.44300187    -0.99728929    -0.21481479
 C     -1.32031932     0.00172088     0.10413363
 C     -1.07663421     1.46254156    -0.01629136
 N     -2.67596433    -0.38756028     0.07489050
 H      1.36076705    -1.77007420     0.12311663
 H     -0.82845451    -2.03185355    -0.27619684
 H      1.62090710     1.21619308    -0.71199635
 H     -3.31162581     0.28827248     0.13442297
 H     -3.09256164    -1.17219871     0.45969146
 H      4.05439827     1.05366111    -0.20881092
 H      3.59856251    -0.63482996     0.82211087
 H     -2.09849158     2.17052575     0.45514604
 H     -0.30480845     1.87232080     0.74569071
 H     -1.10325332     1.81743428    -1.03988449
   17

 C      3.18059302     0.26047429     0.24900050
 C      1.77061323     0.35247643    -0.20773769
 C      1.04453569    -0.86563809    -0.05063966
 C     -0.45254979    -0.99191632    -0.20760914
 C     -1.33559970     0.00754349     0.11658931
 C     -1.06412168     1.46189300    -0.01558583
 N     -2.67787345    -0.39498756     0.06641336
 H      1.35697580    -1.75315648     0.15531338
 H     -0.82359922    -2.03909868    -0.29374299
 H      1.63118640     1.22769394    -0.74517457
 H     -3.36327707     0.34812920     0.10291312
 H     -3.05824624    -1.13681497     0.46415266
 H      4.00373155     1.00761953    -0.21281420
 H      3.60920658    -0.60600078     0.80884353
 H     -2.10437540     2.12962656     0.43579288
 H     -0.36220280     1.83137244     0.72237760
 H     -1.11624442     1.80192969    -0.98527678
   17

 C      3.18623837     0.26443912     0.24190606
 C      1.77379873     0.33936297    -0.19873001
 C      1.06240645    -0.85543134    -0.06103822
 C     -0.46188218    -0.98740198    -0.20026286
 C     -1.35238578     0.01217894     0.12846283
 C     -1.05565595     1.46299766    -0.01100974
 N     -2.67930189    -0.39836658     0.05682181
 H      1.38680332    -1.78247295     0.20919405
 H     -0.81497512    -2.03301326    -0.31194180
 H      1.62553939     1.24991566    -0.78427580
 H     -3.40932932     0.40524289     0.06776218
 H     -3.03276843    -1.14465798     0.48850761
 H      3.92855837     0.94356249    -0.19989224
 H      3.61135523    -0.56550780     0.79049205
 H     -2.08077837     2.06552298     0.40453309
 H     -0.41233133     1.79058657     0.68972096
 H     -1.11759725     1.79363916    -0.95132158
   17

 C      3.19138431     0.26839978     0.23338672
 C      1.77991755     0.32458556    -0.18929725
 C      1.07827390    -0.84192182    -0.07268846
 C     -0.47064494    -0.98358053    -0.19281465
 C     -1.36995985     0.01537630     0.13942369
 C     -1.05315911     1.46412535    -0.00329978
 N     -2.68161541    -0.39671903     0.04623069
 H      1.43733009    -1.82767842     0.27797162
 H     -0.80383001    -2.01475336    -0.33049064
 H      1.60767227     1.26448394    -0.81725761
 H     -3.43399590     0.43805099     0.03028925
 H     -3.01596649    -1.18880299     0.53099400
 H      3.84648845     0.87788648    -0.18009096
 H      3.60880531    -0.52278784     0.77325575
 H     -2.03075500     1.98397729     0.36470825
 H     -0.43208918     1.76209157     0.67042405
 H     -1.10639083     1.79717508    -0.95349707
